#Put Keywords Here, check Charge and Multiplicity.

 reactants.out

-2  1
O          -0.49827         2.84835         0.91874
H          -1.46341         2.61013         0.88021
H          -0.36017         3.07834         1.84535
C          -5.98740        -2.82391        -0.69854
H          -6.78287        -2.73798         0.05086
H          -5.82039        -3.88465        -0.88970
H          -6.33479        -2.36389        -1.63451
N          -4.74698        -2.24949        -0.21786
H          -3.88698        -2.78343        -0.34192
C          -4.62083        -0.96322         0.18049
N          -5.67474        -0.13905         0.19792
H          -6.51871        -0.42037        -0.27257
H          -5.51938         0.89254         0.38037
N          -3.44137        -0.52105         0.60720
H          -2.63534        -1.13177         0.56300
H          -3.30388         0.50711         0.77951
C           0.12977        -3.76958        -1.31165
H          -0.15915        -4.53168        -2.03386
H           0.77100        -4.21966        -0.54620
H           0.70936        -2.98185        -1.80079
C          -1.10956        -3.19875        -0.65973
O          -2.22360        -3.66872        -0.81204
O          -0.93167        -2.13840         0.13818
H          -0.00615        -1.76114         0.10800
C          -3.80801         4.38992         0.84526
H          -4.11843         4.74989         1.83283
H          -4.40909         4.91774         0.10141
H          -2.74786         4.61441         0.70950
C          -4.06639         2.88719         0.76197
O          -5.23934         2.50107         0.54211
O          -3.06312         2.11720         0.95315
O           1.45658        -1.01830        -0.00507
C           1.51403         0.44974         0.04411
C           2.11669        -0.38826         1.11704
C           3.57583        -0.65160         1.29842
C           4.19799        -1.76005         0.71560
C           5.55279        -2.00700         0.94209
C           6.29535        -1.15011         1.75475
C           5.67715        -0.04454         2.34329
C           4.32379         0.20188         2.11973
C           2.26469         1.15300        -1.03138
C           1.98264         2.51326        -1.23106
C           2.66757         3.22958        -2.21253
C           3.62210         2.59677        -3.01040
C           3.88856         1.23858        -2.82638
C           3.21447         0.51767        -1.84186
H           0.56843         0.92342         0.31162
H           1.53143        -0.44420         2.03804
H           3.61485        -2.42469         0.08642
H           6.02687        -2.87038         0.48443
H           7.34971        -1.34182         1.93004
H           6.24984         0.62753         2.97539
H           3.84626         1.06389         2.57809
H           1.21872         2.99013        -0.62141
H           2.44496         4.28224        -2.36112
H           4.14908         3.15564        -3.77848
H           4.62109         0.73765        -3.45285
H           3.41473        -0.53883        -1.70847

