%nproc=1
%chk=ASH
%Mem=1GB
# HF/6-31G* scrf=smd opt

Aspartate molecule

0 1
C         -2.46445        1.95499       -0.28495
O         -2.52150        0.84355       -0.79090
O         -1.28726        2.55624        0.00210
H         -1.37399        3.43509        0.41923
C         -3.65191        2.81874        0.05057
C         -4.99068        2.16605       -0.30428
H         -3.54828        3.74941       -0.52194
H         -3.61530        3.06843        1.11744
N         -5.18286        0.87321        0.37639
H         -4.47220        0.21245        0.04283
H         -6.08664        0.47378        0.12248
C         -6.10306        3.14955        0.10694
H         -5.06141        1.98216       -1.38288
O         -6.62643        3.20426        1.21032
O         -6.43311        4.02699       -0.87266
H         -5.98943        3.88308       -1.72843


