%Mem=8192MB
%NProcShared=8
%chk=/scratch/p315462/ARG.chk
%RWF=/scratch/p315462/ARG.rwf
%Int=/scratch/p315462/ARG.int
#P B3LYP/6-31g* Opt=(MaxCycle=900)

Arginine molecule

0 2
C         -5.75530       -4.35305       -0.71339
H         -6.06208       -4.64193        0.29478
H         -5.44400       -5.25022       -1.25560
H         -6.57026       -3.87680       -1.26389
N         -4.61356       -3.44348       -0.63881
H         -3.74379       -3.74087       -1.06304
C         -4.63866       -2.23984       -0.04800
N         -5.74002       -1.76353        0.53696
H         -6.59812       -2.29872        0.55449
H         -5.75728       -0.85558        0.98186
N         -3.53347       -1.48844       -0.03969
H         -2.67190       -1.80170       -0.46831
H         -3.51955       -0.57584        0.39764

--link1--
%chk=/scratch/p315462/ARG.chk
#P HF/6-31G* SCF=(Tight,MaxCycle=900) Geom=AllCheck Guess=Read Pop=MK IOp(6/33=2,6/41=10,6/42=17)

