%chk=ASP__gesp
#HF/6-31G* scrf=smd SCF=tight Test Pop=MK iop(6/33=2) iop(6/42=6)
# iop(6/50=1)

calc RESP charges

-1  1  
   C    1.934372   -0.068501    0.091594
   O    2.184896    0.873093    0.789534
   O    2.940405   -0.743066   -0.451375
   H    2.636755   -1.472609   -0.985525
   C    0.554500   -0.591077   -0.206322
   C   -0.566234    0.342687    0.230624
   H    0.476166   -1.544690    0.302571
   H    0.488516   -0.790390   -1.271046
   N   -0.514371    1.584038   -0.530754
   H    0.218569    2.162204   -0.167229
   H   -1.373290    2.076458   -0.384744
   C   -1.940918   -0.329898    0.087821
   H   -0.457291    0.518258    1.301005
   O   -2.902408    0.396705   -0.210655
   O   -2.007787   -1.546327    0.334741

g09.gesp

g09.gesp

