%Mem=8192MB
%NProcShared=8
%chk=098457434.chk
#P B3LYP/6-31g* Opt=(MaxCycle=900)

Tyrosine

0 1
C         -2.67000        5.00400       -2.69600
H         -3.34100        5.67000       -3.23000
C         -3.17600        4.07600       -1.78400
H         -4.24600        4.01700       -1.60500
C         -1.29200        5.06300       -2.91500
H         -0.88400        5.77800       -3.62400
C         -2.32600        3.21300       -1.08900
H         -2.73100        2.49500       -0.38000
C         -0.43000        4.20800       -2.23200
H          0.64300        4.23800       -2.40100
C         -0.94400        3.28100       -1.31600
O         -0.06000        2.46500       -0.66800
H         -0.52300        1.81500       -0.04200

--link1--
%chk=098457434.chk
#P HF/6-31G* SCF=(Tight,MaxCycle=900) Geom=AllCheck Guess=Read Pop=MK IOp(6/33=2,6/41=10,6/42=17)

