%nproc=1
%chk=RRD
%Mem=1GB
# HF/6-31G* scrf=smd opt

RR Diol

0 1
O         -0.26056       -1.91332       -1.82759
H         -1.04661       -1.70062       -2.36022
C          0.62909       -1.69014        0.45732
H          1.23460       -2.56458        0.18398
C          1.52759       -0.47079        0.33055
C          1.36392        0.65559        1.15299
C          2.19714        1.76678        1.01297
C          3.19882        1.77048        0.04478
C          3.36423        0.66648       -0.78850
C          2.53281       -0.44603       -0.64862
C         -0.62912       -1.69020       -0.45717
C         -1.52765       -0.47085       -0.33051
C         -1.36405        0.65543       -1.15309
C         -2.19729        1.76662       -1.01316
C         -3.19892        1.77040       -0.04492
C         -3.36425        0.66650        0.78850
C         -2.53281       -0.44601        0.64871
O          0.26054       -1.91314        1.82776
H          1.04657       -1.70034        2.36037
H          0.57005        0.68141        1.89768
H          2.05710        2.63283        1.65448
H          3.84441        2.63750       -0.06637
H          4.13727        0.67259       -1.55247
H          2.66505       -1.29446       -1.31786
H         -1.23461       -2.56463       -0.18376
H         -0.57022        0.68118       -1.89783
H         -2.05731        2.63259       -1.65478
H         -3.84453        2.63742        0.06617
H         -4.13725        0.67268        1.55252
H         -2.66499       -1.29436        1.31806


