%chk=RRD_gesp
#HF/6-31G* scrf=smd SCF=tight Test Pop=MK iop(6/33=2) iop(6/42=6)
# iop(6/50=1)

calc RESP charges

0 1    
    O    0.105774   -1.740690    1.777295
    H    0.834841   -1.823034    2.382433
    C   -0.613009   -1.627010   -0.467006
    H   -1.166997   -2.524969   -0.216322
    C   -1.548779   -0.440410   -0.313444
    C   -1.397913    0.709936   -1.081586
    C   -2.270630    1.777733   -0.933896
    C   -3.306802    1.711604   -0.015114
    C   -3.468497    0.567408    0.751510
    C   -2.598305   -0.500868    0.598044
    C    0.613009   -1.627010    0.467006
    C    1.548779   -0.440410    0.313444
    C    1.397913    0.709936    1.081586
    C    2.270629    1.777733    0.933896
    C    3.306802    1.711604    0.015115
    C    3.468498    0.567409   -0.751510
    C    2.598306   -0.500868   -0.598043
    O   -0.105774   -1.740689   -1.777296
    H   -0.834841   -1.823028   -2.382435
    H   -0.602961    0.773106   -1.800689
    H   -2.140754    2.658565   -1.537241
    H   -3.984424    2.539037    0.097391
    H   -4.274596    0.501865    1.460431
    H    -2.740881   -1.389422    1.186969
    H    1.166998   -2.524969    0.216321
    H    0.602960    0.773106    1.800689
    H    2.140753    2.658566    1.537241
    H    3.984423    2.539037   -0.097390
    H    4.274597    0.501866   -1.460430
    H    2.740882   -1.389422   -1.186968

g09.gesp

g09.gesp

