%nproc=1
%chk=STO
%Mem=1GB
# HF/6-31G* scrf=smd opt

stilbeneoxide  molecule

0 1
O          0.00021        2.25226        1.13541
C          0.75834        1.94257       -0.04591
C          1.57200        0.67026       -0.05757
C          2.09476        0.16762       -1.26207
C          2.88019       -0.98866       -1.29263
C          3.15632       -1.67414       -0.11361
C          2.65033       -1.20172        1.09309
C          1.87356       -0.04032        1.11744
C         -0.76131        1.94152       -0.04338
C         -1.57326        0.66795       -0.05310
C         -1.85394       -0.05473        1.11970
C         -2.62935       -1.21710        1.09702
C         -3.15502       -1.67846       -0.10553
C         -2.89981       -0.98102       -1.28221
C         -2.11557        0.17613       -1.25350
H          1.23163        2.79351       -0.52911
H          1.89286        0.68989       -2.19469
H          3.27640       -1.35128       -2.23740
H          3.76462       -2.57420       -0.13427
H          2.85885       -1.73258        2.01797
H          1.49085        0.31669        2.07172
H         -1.23727        2.79203       -0.52474
H         -1.45572        0.29333        2.07094
H         -2.82141       -1.75733        2.02004
H         -3.76237       -2.57919       -0.12473
H         -3.31151       -1.33490       -2.22367
H         -1.93039        0.70786       -2.18424


