#Put Keywords Here, check Charge and Multiplicity.

 tmp.out

0  1
O           1.09161         1.26175        -1.68936
H           2.07529         1.33036        -1.82801
H           0.64155         1.73292        -2.42325
C           2.68414         4.66629         2.85914
H           3.33953         5.20190         3.53906
C           3.21686         3.87083         1.84319
H           4.29390         3.78471         1.72818
C           1.29715         4.76265         2.99183
H           0.86647         5.37525         3.77939
C           2.38638         3.17720         0.96176
H           2.81435         2.56275         0.17428
C           0.45342         4.07511         2.12157
H          -0.62621         4.13805         2.22095
C           0.99524         3.28010         1.10355
O           0.12592         2.62832         0.27105
H           0.60964         2.06738        -0.42403
C          -1.77740         4.54494        -4.23441
H          -1.06751         4.76213        -5.03613
H          -2.19559         5.48218        -3.85912
H          -2.58295         3.94413        -4.66576
C          -1.07218         3.72127        -3.17125
O          -0.48854         2.67488        -3.48544
N          -1.13126         4.18694        -1.90737
H          -0.70149         3.67275        -1.13506
H          -1.60603         5.05016        -1.69993
C           6.52122        -3.58782         0.59595
H           7.03185        -3.84303        -0.34241
H           6.31334        -4.51846         1.12513
H           7.20295        -2.99165         1.21570
N           5.26238        -2.90789         0.36889
H           4.40168        -3.36516         0.67202
C           5.15598        -1.69974        -0.22530
N           6.24012        -1.04690        -0.65873
H           7.13452        -1.50619        -0.64475
H           6.12925        -0.15110        -1.20262
N           3.95916        -1.13854        -0.36616
H           3.13213        -1.62656        -0.04558
H           3.86930        -0.21981        -0.85839
C           0.42435        -4.65889         1.33547
H           0.69823        -5.65228         1.68742
H          -0.22680        -4.73524         0.45987
H          -0.13948        -4.13541         2.11443
C           1.67617        -3.88031         0.99891
O           2.80250        -4.30087         1.20256
O           1.49890        -2.66783         0.46457
H           0.53982        -2.43017         0.29015
C           4.58412         2.97072        -3.05895
H           5.51994         3.26754        -3.53387
H           4.22625         3.78381        -2.41844
H           3.81827         2.80050        -3.82228
C           4.77513         1.71007        -2.22196
O           5.92549         1.23187        -2.10552
O           3.72258         1.22425        -1.67214
O          -0.96402        -1.96405        -0.09987
C          -1.34372        -0.58231         0.16443
C          -1.08226        -1.04290        -1.22711
C          -2.12724        -1.32949        -2.24956
C          -2.91588        -2.48394        -2.21307
C          -3.86754        -2.71763        -3.20673
C          -4.03836        -1.80050        -4.24360
C          -3.24569        -0.65117        -4.28810
C          -2.28936        -0.41587        -3.30193
C          -2.68493        -0.32227         0.75605
C          -3.00656         1.00290         1.08425
C          -4.25047         1.30539         1.63468
C          -5.17830         0.28963         1.87649
C          -4.85396        -1.03133         1.56656
C          -3.61263        -1.33818         1.00789
H          -0.53817         0.00995         0.59714
H          -0.12046        -0.71247        -1.62038
H          -2.76823        -3.20347        -1.41537
H          -4.47219        -3.61938        -3.17152
H          -4.77886        -1.98308        -5.01693
H          -3.36583         0.06206        -5.09837
H          -1.66948         0.47599        -3.34943
H          -2.27430         1.78601         0.90607
H          -4.49335         2.33447         1.88342
H          -6.14516         0.52612         2.31110
H          -5.56688        -1.82710         1.76237
H          -3.35253        -2.36527         0.78013

