#Put Keywords Here, check Charge and Multiplicity.

 tmp.out

-2  1
O           0.08698         1.34609        -0.65784
H           1.10319         1.17069        -0.90077
H          -0.36463         1.74210        -1.44815
C           2.94140         5.35909         2.71439
H           3.77693         5.85230         3.20109
C           3.13828         4.17506         2.00246
H           4.13147         3.74110         1.93039
C           1.65663         5.90163         2.79507
H           1.48821         6.82139         3.34849
C           2.07137         3.53219         1.37218
H           2.23586         2.61471         0.81395
C           0.58064         5.27137         2.17322
H          -0.42393         5.67849         2.23618
C           0.78674         4.08494         1.45964
O          -0.30266         3.50397         0.86544
H          -0.05767         2.65115         0.41769
C          -1.76779         4.49565        -4.06638
H          -0.91800         4.52314        -4.75417
H          -2.15555         5.50906        -3.93886
H          -2.53755         3.86941        -4.52363
C          -1.32161         3.84752        -2.76991
O          -0.94503         2.66485        -2.77088
N          -1.35807         4.61152        -1.66232
H          -1.03173         4.25484        -0.76087
H          -1.64761         5.57450        -1.71552
C           6.17779        -3.96173        -0.32920
H           6.34852        -4.02643        -1.41368
H           6.16421        -4.97884         0.06456
H           7.02503        -3.43306         0.12585
N           4.91372        -3.33925         0.00079
H           4.16022        -3.92834         0.41170
C           4.60816        -2.06917        -0.30344
N           5.49337        -1.26662        -0.92560
H           6.30245        -1.68369        -1.35480
H           5.15124        -0.36716        -1.31421
N           3.42653        -1.57541         0.06378
H           2.71251        -2.21801         0.43742
H           3.13354        -0.65936        -0.30053
C           0.58467        -5.57582         1.16156
H           0.95989        -6.59805         1.10624
H          -0.20379        -5.42318         0.41825
H           0.13577        -5.41004         2.14695
C           1.71530        -4.57542         0.94682
O           2.89288        -4.97976         0.93735
O           1.37028        -3.33882         0.80890
H           0.04223        -2.95093         0.40692
C           2.80303         2.73122        -2.51153
H           3.49077         3.04365        -3.29799
H           2.74342         3.52509        -1.75808
H           1.79834         2.59407        -2.92217
C           3.30655         1.45434        -1.84680
O           4.47199         1.07896        -2.05533
O           2.47797         0.84211        -1.06070
O          -0.84885        -2.57555        -0.00412
C          -0.80302        -0.47547         0.08084
C          -0.50350        -1.55272        -0.92377
C          -1.25760        -1.64849        -2.23617
C          -2.10936        -2.73194        -2.47761
C          -2.77022        -2.84857        -3.70203
C          -2.58637        -1.88511        -4.69451
C          -1.73099        -0.80663        -4.45916
C          -1.06361        -0.69140        -3.24044
C          -2.09869         0.01942         0.50588
C          -3.27964        -0.12326        -0.25141
C          -4.48173         0.38015         0.23272
C          -4.52664         1.03972         1.46455
C          -3.36254         1.19817         2.22076
C          -2.15976         0.69078         1.74576
H          -0.02172        -0.40895         0.82877
H           0.57359        -1.54519        -1.13187
H          -2.24466        -3.47280        -1.69806
H          -3.42745        -3.69518        -3.87949
H          -3.10144        -1.97603        -5.64654
H          -1.57704        -0.05216        -5.22484
H          -0.39871         0.14841        -3.07581
H          -3.25175        -0.63310        -1.20473
H          -5.38832         0.25930        -0.35181
H          -5.46980         1.43128         1.83453
H          -3.39460         1.71380         3.17496
H          -1.25163         0.81610         2.32719

