#Put Keywords Here, check Charge and Multiplicity.

 tmp.out

0  1
O           0.07482         1.20761        -0.34170
H           1.72698         1.07997        -0.48877
H          -0.30792         1.41711        -1.23053
C           2.47372         5.95410         2.52304
H           3.23450         6.53512         3.03423
C           2.67748         4.59901         2.26302
H           3.60034         4.11705         2.57261
C           1.27712         6.55375         2.12171
H           1.10332         7.60713         2.32225
C           1.70280         3.84393         1.60727
H           1.86830         2.78887         1.41012
C           0.29564         5.81333         1.46711
H          -0.64109         6.26788         1.16043
C           0.50784         4.45481         1.20602
O          -0.48455         3.76943         0.56037
H          -0.24224         2.82566         0.42454
C          -1.57765         3.52010        -4.47416
H          -0.68028         3.63096        -5.08931
H          -2.22246         4.38910        -4.62432
H          -2.09494         2.61883        -4.81230
C          -1.15752         3.31580        -3.03309
O          -0.47883         2.32354        -2.72063
N          -1.54914         4.24045        -2.13718
H          -1.24504         4.16814        -1.16407
H          -2.09939         5.03510        -2.41981
C           6.14058        -4.27627        -1.07638
H           6.25013        -4.02793        -2.14245
H           6.04374        -5.35994        -0.99977
H           7.05690        -3.97815        -0.55186
N           4.96135        -3.68326        -0.48100
H           4.14766        -4.31467        -0.23558
C           4.77333        -2.36782        -0.36796
N           5.71147        -1.48735        -0.80041
H           6.40955        -1.81982        -1.44572
H           5.43376        -0.51064        -0.90578
N           3.67623        -1.91246         0.23565
H           2.90031        -2.58123         0.46237
H           3.45212        -0.92810         0.15584
C           0.53909        -5.71501         0.31582
H           0.71924        -6.63495        -0.24209
H          -0.32830        -5.18485        -0.08655
H           0.31033        -5.97345         1.35588
C           1.76817        -4.81360         0.28614
O           2.87354        -5.31388        -0.03159
O           1.58800        -3.58958         0.61952
H           0.11208        -2.85930         0.58320
C           2.89378         2.76975        -1.91969
H           3.60303         3.18009        -2.63751
H           2.67928         3.52171        -1.15203
H           1.94842         2.52673        -2.41500
C           3.49996         1.55353        -1.26297
O           4.66316         1.21885        -1.40271
O           2.69706         0.83737        -0.45854
O          -0.69954        -2.29686         0.44211
C          -0.54239         0.07281         0.33379
C          -0.35029        -1.26764        -0.45172
C          -1.14258        -1.35200        -1.74769
C          -2.41172        -1.94603        -1.76362
C          -3.14209        -2.02316        -2.94823
C          -2.61478        -1.51044        -4.13651
C          -1.34888        -0.92504        -4.13201
C          -0.61786        -0.85140        -2.94431
C          -1.97218         0.35963         0.74486
C          -2.82917         1.15434        -0.02606
C          -4.14518         1.38036         0.37959
C          -4.62610         0.80747         1.55654
C          -3.78225         0.00405         2.32551
C          -2.46548        -0.21500         1.92428
H           0.05985        -0.05020         1.23790
H           0.71925        -1.31651        -0.70362
H          -2.80124        -2.36124        -0.84117
H          -4.12291        -2.49079        -2.94682
H          -3.18214        -1.57938        -5.06067
H          -0.92076        -0.53873        -5.05292
H           0.37429        -0.40864        -2.95504
H          -2.47855         1.59709        -0.95229
H          -4.79498         2.00302        -0.22886
H          -5.65005         0.98498         1.87246
H          -4.14736        -0.44926         3.24254
H          -1.81445        -0.85207         2.51332

